tests/data/power_flow/pandapower/components/pp-asym-transformer/pgm_asym_output.json
{
  "node": [
    {
      "id": 1,
      "energized": 1,
      "u_pu": [
        1.0,
        1.0,
        0.9999999999999998
      ],
      "u": [
        6062.177826491072,
        6062.177826491072,
        6062.177826491071
      ],
      "u_angle": [
        -1.0860555637765006e-16,
        -2.0943951023931957,
        2.0943951023931953
      ]
    },
    {
      "id": 2,
      "energized": 1,
      "u_pu": [
        0.9996953875977005,
        0.9996953875977008,
        0.9996953875977005
      ],
      "u": [
        230.8697604548639,
        230.86976045486395,
        230.8697604548639
      ],
      "u_angle": [
        0.5225737566803608,
        -1.571821345712835,
        2.616968859073556
      ]
    }
  ],
  "source": [
    {
      "id": 7,
      "energized": 1,
      "p": [
        3602.2189219736497,
        6009.826894816029,
        15014.890155030787
      ],
      "q": [
        -360.2218921973654,
        -4320.1837925440905,
        2715.9905535866674
      ],
      "i": [
        0.5971756877154796,
        1.2209286897673426,
        2.5170089746288644
      ],
      "s": [
        3620.185212588336,
        7401.4868308343775,
        15258.555995074124
      ],
      "pf": [
        0.995037190209989,
        0.8119756249216395,
        0.9840308715895528
      ]
    }
  ],
  "sym_load": [
    {
      "id": 6,
      "energized": 1,
      "p": [
        3333.333333333333,
        3333.333333333333,
        3333.333333333333
      ],
      "q": [
        666.6666666666666,
        666.6666666666666,
        666.6666666666666
      ],
      "i": [
        14.724086583265539,
        14.724086583265537,
        14.724086583265537
      ],
      "s": [
        3399.34634239519,
        3399.34634239519,
        3399.34634239519
      ],
      "pf": [
        0.9805806756909201,
        0.9805806756909201,
        0.9805806756909201
      ]
    }
  ],
  "transformer": [
    {
      "id": 3,
      "energized": 1,
      "loading": 0.011183205024715374,
      "p_from": [
        3666.946188784307,
        3666.9461887824104,
        3666.9461887838306
      ],
      "q_from": [
        670.4580077929729,
        670.4580077925127,
        670.458007790971
      ],
      "i_from": [
        0.614916802992743,
        0.6149168029924216,
        0.6149168029926063
      ],
      "s_from": [
        3727.7350082393837,
        3727.7350082374346,
        3727.7350082385547
      ],
      "p_to": [
        -3333.333333332232,
        -3333.333333331942,
        -3333.3333333335536
      ],
      "q_to": [
        -666.666666666736,
        -666.6666666663958,
        -666.6666666659747
      ],
      "i_to": [
        14.724086583260922,
        14.724086583259393,
        14.724086583265887
      ],
      "s_to": [
        3399.346342394124,
        3399.346342393773,
        3399.34634239527
      ]
    }
  ]
}